
     RDKit          3D

 24 27  0  0  0  0  0  0  0  0999 V2000
   13.7380   -1.7580   21.4980 Cl  0  0  0  0  0  0  0  0  0  0  0  0
   12.4300   -1.0190   22.3650 C   0  0  0  0  0  0  0  0  0  0  0  0
   12.6720   -0.0640   23.3450 C   0  0  2  0  0  0  0  0  0  0  0  0
   14.2900    0.3390   23.8190 Cl  0  0  0  0  0  0  0  0  0  0  0  0
   11.1330   -1.3760   22.0500 C   0  0  0  0  0  0  0  0  0  0  0  0
   10.0550   -0.7870   22.7080 C   0  0  0  0  0  0  0  0  0  0  0  0
   10.3100    0.1720   23.7020 C   0  0  0  0  0  0  0  0  0  0  0  0
   11.6190    0.5380   24.0050 C   0  0  0  0  0  0  0  0  0  0  0  0
    8.6260   -1.1760   22.3870 C   0  0  1  0  0  0  0  0  0  0  0  0
    7.7780   -1.0770   23.6730 C   0  0  0  0  0  0  0  0  0  0  0  0
    7.8720    0.3200   24.2630 C   0  0  0  0  0  0  0  0  0  0  0  0
    9.2670    0.7300   24.4200 N   0  0  0  0  0  0  0  0  0  0  0  0
    8.0970   -0.2330   21.3050 C   0  0  0  0  0  0  0  0  0  0  0  0
    8.6630    0.8260   21.0220 O   0  0  0  0  0  0  0  0  0  0  0  0
    6.9630   -0.6580   20.7030 N   0  0  0  0  0  0  0  0  0  0  0  0
    6.2920    0.0130   19.6560 C   0  0  1  0  0  0  0  0  0  0  0  0
    5.2490    0.9060   19.9390 C   0  0  0  0  0  0  0  0  0  0  0  0
    4.7470    1.1570   21.3540 C   0  0  2  0  0  0  0  0  0  0  0  0
    3.5530    2.0370   21.6140 C   0  0  0  0  0  0  0  0  0  0  0  0
    4.9080    2.5200   21.9740 C   0  0  0  0  0  0  0  0  0  0  0  0
    4.6850    1.6040   18.8780 C   0  0  0  0  0  0  0  0  0  0  0  0
    5.1650    1.3950   17.6030 C   0  0  0  0  0  0  0  0  0  0  0  0
    6.1530    0.5440   17.3120 N   0  0  0  0  0  0  0  0  0  0  0  0
    6.6970   -0.1340   18.3290 C   0  0  0  0  0  0  0  0  0  0  0  0
  2  1  1  0
  3  2  1  0
  3  4  1  1
  5  2  1  0
  6  5  1  0
  7  6  1  0
  8  7  1  0
  8  3  1  0
  9  6  1  0
 10  9  1  0
 11 10  1  0
 12 11  1  0
 12  7  1  0
  9 13  1  6
 14 13  1  0
 15 13  1  0
 16 15  1  1
 17 16  1  0
 18 17  1  6
 19 18  1  0
 20 19  1  0
 20 18  1  0
 21 17  1  0
 22 21  1  0
 23 22  1  0
 24 23  1  0
 24 16  1  0
M  END
$$$$
