
     RDKit          3D

 13 13  0  0  0  0  0  0  0  0999 V2000
    6.5650   -5.0400   26.5740 C   0  0  0  0  0  0  0  0  0  0  0  0
    9.4510   -3.1150   24.1690 C   0  0  0  0  0  0  0  0  0  0  0  0
    9.3510   -1.8310   23.3570 C   0  0  0  0  0  0  0  0  0  0  0  0
   10.7480   -1.2320   23.4040 C   0  0  0  0  0  0  0  0  0  0  0  0
   11.0590   -0.1920   24.2710 C   0  0  0  0  0  0  0  0  0  0  0  0
   12.3510    0.3080   24.2960 C   0  0  0  0  0  0  0  0  0  0  0  0
   13.3280   -0.2450   23.4840 C   0  0  0  0  0  0  0  0  0  0  0  0
   13.0140   -1.2930   22.6280 C   0  0  0  0  0  0  0  0  0  0  0  0
   11.7240   -1.7830   22.5970 C   0  0  0  0  0  0  0  0  0  0  0  0
    8.1960   -3.6200   24.6640 N   0  0  0  0  0  0  0  0  0  0  0  0
    9.2100   -5.5390   26.1600 O   0  0  0  0  0  0  0  0  0  0  0  0
    8.7770   -3.6120   27.2020 O   0  0  0  0  0  0  0  0  0  0  0  0
    8.2270   -4.4510   26.1510 S   0  0  2  0  0  0  0  0  0  0  0  0
  3  2  1  0
  4  3  1  0
  5  4  1  0
  6  5  1  0
  7  6  1  0
  8  7  1  0
  9  4  1  0
  9  8  1  0
 10  2  1  0
 13 11  1  0
 13 12  1  0
 13 10  1  0
 13  1  1  1
M  END
$$$$

     RDKit          3D

 16 17  0  0  0  0  0  0  0  0999 V2000
    9.1840    6.1610   22.6700 C   0  0  0  0  0  0  0  0  0  0  0  0
   10.4650    5.8560   23.4370 C   0  0  0  0  0  0  0  0  0  0  0  0
   12.8550    4.9860   23.3950 C   0  0  0  0  0  0  0  0  0  0  0  0
   13.2290    3.5570   22.9930 C   0  0  0  0  0  0  0  0  0  0  0  0
   12.2400    2.4750   23.4550 C   0  0  0  0  0  0  0  0  0  0  0  0
   11.1170    2.6540   24.2470 C   0  0  0  0  0  0  0  0  0  0  0  0
   11.2140    0.5030   23.7510 C   0  0  0  0  0  0  0  0  0  0  0  0
   10.9820   -0.8920   23.6260 C   0  0  0  0  0  0  0  0  0  0  0  0
   11.8610   -1.6720   22.8790 C   0  0  0  0  0  0  0  0  0  0  0  0
   12.9660   -1.0800   22.2570 C   0  0  0  0  0  0  0  0  0  0  0  0
   13.1920    0.2890   22.3870 C   0  0  0  0  0  0  0  0  0  0  0  0
   12.2980    1.0920   23.1460 C   0  0  0  0  0  0  0  0  0  0  0  0
   13.8310   -1.8370   21.5240 F   0  0  0  0  0  0  0  0  0  0  0  0
   11.6140    5.3230   22.7250 N   0  0  0  0  0  0  0  0  0  0  0  0
   10.5240    1.4790   24.4090 N   0  0  0  0  0  0  0  0  0  0  0  0
   10.5070    6.0440   24.6010 O   0  0  0  0  0  0  0  0  0  0  0  0
  2  1  1  0
  4  3  1  0
  5  4  1  0
  6  5  1  0
  8  7  1  0
  9  8  1  0
 10  9  1  0
 11 10  1  0
 12 11  1  0
 12  7  1  0
 12  5  1  0
 13 10  1  0
 14  2  1  0
 14  3  1  0
 15  7  1  0
 15  6  1  0
 16  2  1  0
M  END
$$$$

     RDKit          3D

 14 14  0  0  0  0  0  0  0  0999 V2000
   13.7430   -2.4780   24.3190 C   0  0  0  0  0  0  0  0  0  0  0  0
   13.3830   -0.2440   23.5370 C   0  0  0  0  0  0  0  0  0  0  0  0
   12.6290    1.0810   23.6240 C   0  0  0  0  0  0  0  0  0  0  0  0
   11.4120    1.1530   24.2860 C   0  0  0  0  0  0  0  0  0  0  0  0
   10.7410    2.3660   24.3680 C   0  0  0  0  0  0  0  0  0  0  0  0
   11.2950    3.4990   23.7830 C   0  0  0  0  0  0  0  0  0  0  0  0
   12.5130    3.4240   23.1210 C   0  0  0  0  0  0  0  0  0  0  0  0
   13.1780    2.2150   23.0460 C   0  0  0  0  0  0  0  0  0  0  0  0
    9.0160    5.0730   22.9390 N   0  0  0  0  0  0  0  0  0  0  0  0
   13.2610   -1.1810   24.5730 O   0  0  0  0  0  0  0  0  0  0  0  0
   14.0780   -0.4590   22.6070 O   0  0  0  0  0  0  0  0  0  0  0  0
   11.3170    6.1920   23.4770 O   0  0  0  0  0  0  0  0  0  0  0  0
   10.1520    5.4220   25.2810 O   0  0  0  0  0  0  0  0  0  0  0  0
   10.4380    5.0900   23.8840 S   0  0  2  0  0  0  0  0  0  0  0  0
  3  2  1  0
  4  3  1  0
  5  4  1  0
  6  5  1  0
  7  6  1  0
  8  7  1  0
  8  3  1  0
 10  2  1  0
 10  1  1  0
 11  2  1  0
 14 13  1  0
 14  9  1  6
 14  6  1  0
 14 12  1  0
M  END
$$$$

     RDKit          3D

 15 16  0  0  0  0  0  0  0  0999 V2000
   10.0720   -0.4900   24.9250 C   0  0  0  0  0  0  0  0  0  0  0  0
   11.8520   -1.6700   23.6760 C   0  0  0  0  0  0  0  0  0  0  0  0
   12.8600   -1.5610   22.5710 C   0  0  0  0  0  0  0  0  0  0  0  0
   13.8160   -0.4120   22.8180 C   0  0  0  0  0  0  0  0  0  0  0  0
   13.0440    0.9210   23.0580 C   0  0  0  0  0  0  0  0  0  0  0  0
   13.5990    2.1520   22.6570 C   0  0  0  0  0  0  0  0  0  0  0  0
   12.8930    3.3390   22.8670 C   0  0  0  0  0  0  0  0  0  0  0  0
   11.6240    3.2760   23.4760 C   0  0  0  0  0  0  0  0  0  0  0  0
   11.0700    2.0630   23.8680 C   0  0  0  0  0  0  0  0  0  0  0  0
   11.7810    0.8660   23.6530 C   0  0  0  0  0  0  0  0  0  0  0  0
   11.2200   -0.4400   24.0530 N   0  0  0  0  0  0  0  0  0  0  0  0
   11.6530    6.1490   23.5160 N   0  0  0  0  0  0  0  0  0  0  0  0
   10.1710    4.6960   25.1450 O   0  0  0  0  0  0  0  0  0  0  0  0
    9.4350    4.8220   23.0100 O   0  0  0  0  0  0  0  0  0  0  0  0
   10.6790    4.7780   23.7810 S   0  0  2  0  0  0  0  0  0  0  0  0
  3  2  1  0
  4  3  1  0
  5  4  1  0
  6  5  1  0
  7  6  1  0
  8  7  1  0
  9  8  1  0
 10  9  1  0
 10  5  1  0
 11  1  1  0
 11 10  1  0
 11  2  1  0
 15 14  1  0
 15 13  1  0
 15  8  1  0
 15 12  1  1
M  END
$$$$

     RDKit          3D

 11 11  0  0  0  0  0  0  0  0999 V2000
    8.5340   -0.0770   27.4360 C   0  0  0  0  0  0  0  0  0  0  0  0
    9.0890   -0.6240   26.1390 C   0  0  0  0  0  0  0  0  0  0  0  0
   11.0500   -0.2610   24.6290 C   0  0  0  0  0  0  0  0  0  0  0  0
   10.6940   -1.3910   23.9040 C   0  0  0  0  0  0  0  0  0  0  0  0
   11.4810   -1.8050   22.8480 C   0  0  0  0  0  0  0  0  0  0  0  0
   12.6130   -1.0720   22.5400 C   0  0  0  0  0  0  0  0  0  0  0  0
   13.5050   -1.5120   21.3870 C   0  0  0  0  0  0  0  0  0  0  0  0
   12.9120    0.0500   23.3100 C   0  0  0  0  0  0  0  0  0  0  0  0
   10.2250    0.1790   25.7280 N   0  0  0  0  0  0  0  0  0  0  0  0
   14.1860   -1.8150   20.5300 N   0  0  0  0  0  0  0  0  0  0  0  0
   12.1330    0.4270   24.3230 N   0  0  0  0  0  0  0  0  0  0  0  0
  2  1  1  0
  4  3  1  0
  5  4  1  0
  6  5  1  0
  7  6  1  0
  8  6  1  0
  9  2  1  0
  9  3  1  0
 10  7  1  0
 11  8  1  0
 11  3  1  0
M  END
$$$$

     RDKit          3D

 18 19  0  0  0  0  0  0  0  0999 V2000
   13.2790   -1.1100   22.5510 C   0  0  0  0  0  0  0  0  0  0  0  0
    7.3460    2.6880   29.3200 C   0  0  0  0  0  0  0  0  0  0  0  0
    6.1340    2.5890   29.9750 C   0  0  0  0  0  0  0  0  0  0  0  0
    5.6280    3.7020   30.8450 C   0  0  0  0  0  0  0  0  0  0  0  0
    5.4040    1.4270   29.8130 C   0  0  0  0  0  0  0  0  0  0  0  0
    5.8590    0.3840   29.0200 C   0  0  0  0  0  0  0  0  0  0  0  0
   11.7750   -0.1770   24.1860 C   0  0  0  0  0  0  0  0  0  0  0  0
   11.0660   -0.4520   25.4900 C   0  0  0  0  0  0  0  0  0  0  0  0
   10.7250   -2.7630   24.7710 C   0  0  0  0  0  0  0  0  0  0  0  0
   11.4990   -2.4350   23.5120 C   0  0  0  0  0  0  0  0  0  0  0  0
    8.8410   -1.4930   25.7840 C   0  0  0  0  0  0  0  0  0  0  0  0
    8.4290   -0.2470   26.5570 C   0  0  0  0  0  0  0  0  0  0  0  0
    7.0740    0.5030   28.3640 C   0  0  0  0  0  0  0  0  0  0  0  0
    7.8220    1.6660   28.5150 C   0  0  0  0  0  0  0  0  0  0  0  0
   12.4820   -1.3770   23.7480 N   0  0  0  0  0  0  0  0  0  0  0  0
   10.1200   -1.5640   25.3570 N   0  0  0  0  0  0  0  0  0  0  0  0
    8.0090   -2.3770   25.5740 O   0  0  0  0  0  0  0  0  0  0  0  0
    7.5030   -0.5450   27.5910 O   0  0  0  0  0  0  0  0  0  0  0  0
  3  2  1  0
  4  3  1  0
  5  3  1  0
  6  5  1  0
  8  7  1  0
 10  9  1  0
 12 11  1  0
 13  6  1  0
 14 13  1  0
 14  2  1  0
 15 10  1  0
 15  7  1  0
 15  1  1  0
 16 11  1  0
 16  9  1  0
 16  8  1  0
 17 11  1  0
 18 12  1  0
 18 13  1  0
M  END
$$$$

     RDKit          3D

 13 14  0  0  0  0  0  0  0  0999 V2000
    9.1750   -4.8810   26.5250 C   0  0  2  0  0  0  0  0  0  0  0  0
   10.4170   -4.7300   25.8100 C   0  0  0  0  0  0  0  0  0  0  0  0
   10.6580   -3.3210   25.2580 C   0  0  0  0  0  0  0  0  0  0  0  0
    9.7110   -1.5560   24.2340 C   0  0  0  0  0  0  0  0  0  0  0  0
   11.0900   -1.1990   23.6610 C   0  0  0  0  0  0  0  0  0  0  0  0
   11.9950   -0.0920   24.1940 C   0  0  0  0  0  0  0  0  0  0  0  0
   13.2090   -0.0400   23.4310 C   0  0  0  0  0  0  0  0  0  0  0  0
   11.7340   -1.8400   22.5540 C   0  0  0  0  0  0  0  0  0  0  0  0
    8.3350   -2.8910   25.3120 C   0  0  0  0  0  0  0  0  0  0  0  0
    8.0760   -4.3270   25.7760 C   0  0  0  0  0  0  0  0  0  0  0  0
    9.5510   -2.7440   24.5330 N   0  0  0  0  0  0  0  0  0  0  0  0
    9.2930   -4.2850   27.7940 O   0  0  0  0  0  0  0  0  0  0  0  0
   13.1780   -1.1690   22.2730 S   0  0  0  0  0  0  0  0  0  0  0  0
  2  1  1  0
  3  2  1  0
  5  4  1  0
  6  5  1  0
  7  6  1  0
  8  5  1  0
 10  9  1  0
 10  1  1  0
 11  9  1  0
 11  4  1  0
 11  3  1  0
  1 12  1  1
 13  8  1  0
 13  7  1  0
M  END
$$$$

     RDKit          3D

 14 15  0  0  0  0  0  0  0  0999 V2000
    9.4450   -5.4560   26.2700 C   0  0  0  0  0  0  0  0  0  0  0  0
    9.2070   -4.0760   25.6400 C   0  0  0  0  0  0  0  0  0  0  0  0
    9.0750   -2.0990   24.1530 C   0  0  0  0  0  0  0  0  0  0  0  0
    9.1440   -1.0920   22.9880 C   0  0  0  0  0  0  0  0  0  0  0  0
   10.6120    0.2730   23.8080 C   0  0  0  0  0  0  0  0  0  0  0  0
   11.9340    1.1730   23.3870 C   0  0  0  0  0  0  0  0  0  0  0  0
   12.9590    0.4200   22.9140 C   0  0  0  0  0  0  0  0  0  0  0  0
   12.6330   -0.8470   22.1290 C   0  0  2  0  0  0  0  0  0  0  0  0
   11.4050   -1.5010   22.4190 C   0  0  0  0  0  0  0  0  0  0  0  0
   13.6190   -1.5690   21.5760 F   0  0  0  0  0  0  0  0  0  0  0  0
    8.6430   -3.0010   26.2950 N   0  0  0  0  0  0  0  0  0  0  0  0
    8.5570   -1.8210   25.4060 N   0  0  0  0  0  0  0  0  0  0  0  0
   10.2680   -0.5240   22.8710 N   0  0  0  0  0  0  0  0  0  0  0  0
    9.5940   -3.6570   24.0980 S   0  0  0  0  0  0  0  0  0  0  0  0
  2  1  1  0
  4  3  1  0
  6  5  1  0
  7  6  1  0
  8  7  1  0
  9  8  1  0
  8 10  1  1
 11  2  1  0
 12 11  1  0
 12  3  1  0
 13  5  1  0
 13  4  1  0
 13  9  1  0
 14  3  1  0
 14  2  1  0
M  END
$$$$

     RDKit          3D

 15 16  0  0  0  0  0  0  0  0999 V2000
    8.4620   -1.4260   20.8180 C   0  0  0  0  0  0  0  0  0  0  0  0
    7.4230   -1.7030   18.5170 C   0  0  0  0  0  0  0  0  0  0  0  0
    6.5860   -0.4090   18.4240 C   0  0  0  0  0  0  0  0  0  0  0  0
    5.6120   -0.0080   19.3360 C   0  0  0  0  0  0  0  0  0  0  0  0
    5.1130    1.1880   18.9000 C   0  0  0  0  0  0  0  0  0  0  0  0
    4.0180    2.0090   19.5830 C   0  0  0  0  0  0  0  0  0  0  0  0
    6.6110   -3.1300   20.4730 C   0  0  0  0  0  0  0  0  0  0  0  0
    5.8040   -4.5360   22.4490 C   0  0  2  0  0  0  0  0  0  0  0  0
    6.4920   -5.5500   23.3670 C   0  0  0  0  0  0  0  0  0  0  0  0
    6.0680   -5.9600   21.9500 C   0  0  0  0  0  0  0  0  0  0  0  0
    7.4990   -2.0970   19.9360 N   0  0  0  0  0  0  0  0  0  0  0  0
    6.6690    0.5400   17.4800 N   0  0  0  0  0  0  0  0  0  0  0  0
    6.6850   -3.4990   21.8960 N   0  0  0  0  0  0  0  0  0  0  0  0
    5.7530    1.4990   17.7840 O   0  0  0  0  0  0  0  0  0  0  0  0
    5.8350   -3.6660   19.7450 O   0  0  0  0  0  0  0  0  0  0  0  0
  3  2  1  0
  4  3  1  0
  5  4  1  0
  6  5  1  0
  9  8  1  0
 10  9  1  0
 10  8  1  0
 11  7  1  0
 11  2  1  0
 11  1  1  0
 12  3  1  0
 13  7  1  0
  8 13  1  6
 14  5  1  0
 14 12  1  0
 15  7  1  0
M  END
$$$$

     RDKit          3D

 18 19  0  0  0  0  0  0  0  0999 V2000
    1.5900    3.7560   25.2360 C   0  0  0  0  0  0  0  0  0  0  0  0
    0.5940    4.4640   25.8950 C   0  0  0  0  0  0  0  0  0  0  0  0
   -0.7140    4.0000   25.9280 C   0  0  0  0  0  0  0  0  0  0  0  0
   -1.0350    2.8120   25.2910 C   0  0  0  0  0  0  0  0  0  0  0  0
   -0.0460    2.1020   24.6220 C   0  0  0  0  0  0  0  0  0  0  0  0
    1.2690    2.5630   24.5940 C   0  0  0  0  0  0  0  0  0  0  0  0
    2.3240    1.7490   23.8460 C   0  0  0  0  0  0  0  0  0  0  0  0
    4.4690    1.6460   22.4650 C   0  0  0  0  0  0  0  0  0  0  0  0
    3.9730    1.5800   21.0190 C   0  0  0  0  0  0  0  0  0  0  0  0
    4.9720    1.1050   19.9600 C   0  0  0  0  0  0  0  0  0  0  0  0
    5.9820    0.1790   20.2230 C   0  0  0  0  0  0  0  0  0  0  0  0
    6.8260   -0.1870   19.1740 C   0  0  0  0  0  0  0  0  0  0  0  0
    5.7380    1.1880   17.7050 C   0  0  0  0  0  0  0  0  0  0  0  0
    4.8590    1.6100   18.6880 C   0  0  0  0  0  0  0  0  0  0  0  0
    2.8740    4.2400   25.2290 F   0  0  0  0  0  0  0  0  0  0  0  0
    3.4630    2.4020   23.2100 N   0  0  0  0  0  0  0  0  0  0  0  0
    6.6890    0.3190   17.9560 N   0  0  0  0  0  0  0  0  0  0  0  0
    2.1910    0.5700   23.7860 O   0  0  0  0  0  0  0  0  0  0  0  0
  2  1  1  0
  3  2  1  0
  4  3  1  0
  5  4  1  0
  6  5  1  0
  6  1  1  0
  7  6  1  0
  9  8  1  0
 10  9  1  0
 11 10  1  0
 12 11  1  0
 14 10  1  0
 14 13  1  0
 15  1  1  0
 16  8  1  0
 16  7  1  0
 17 13  1  0
 17 12  1  0
 18  7  1  0
M  END
$$$$

     RDKit          3D

 18 19  0  0  0  0  0  0  0  0999 V2000
    3.0550    2.2660   23.3760 C   0  0  0  0  0  0  0  0  0  0  0  0
    5.3300    1.5030   22.5690 C   0  0  0  0  0  0  0  0  0  0  0  0
    5.0000    0.2710   21.7300 C   0  0  0  0  0  0  0  0  0  0  0  0
    5.4280    0.3880   20.2680 C   0  0  0  0  0  0  0  0  0  0  0  0
    6.4960   -0.3840   19.8080 C   0  0  0  0  0  0  0  0  0  0  0  0
    6.8790   -0.2690   18.4780 C   0  0  0  0  0  0  0  0  0  0  0  0
    5.2120    1.2820   18.0740 C   0  0  0  0  0  0  0  0  0  0  0  0
    4.7590    1.2450   19.3890 C   0  0  0  0  0  0  0  0  0  0  0  0
    0.7800    3.2560   23.9770 C   0  0  1  0  0  0  0  0  0  0  0  0
    0.6750    4.6960   24.4870 C   0  0  0  0  0  0  0  0  0  0  0  0
   -0.6470    4.9500   25.1950 C   0  0  0  0  0  0  0  0  0  0  0  0
   -1.8160    4.6400   24.2700 C   0  0  0  0  0  0  0  0  0  0  0  0
   -1.7640    3.2080   23.7520 C   0  0  0  0  0  0  0  0  0  0  0  0
   -0.4130    2.8510   23.1240 C   0  0  0  0  0  0  0  0  0  0  0  0
    4.1990    2.4010   22.4890 N   0  0  0  0  0  0  0  0  0  0  0  0
    6.2440    0.5430   17.6640 N   0  0  0  0  0  0  0  0  0  0  0  0
    1.9780    3.2140   23.1660 N   0  0  0  0  0  0  0  0  0  0  0  0
    3.0150    1.4220   24.2210 O   0  0  0  0  0  0  0  0  0  0  0  0
  3  2  1  0
  4  3  1  0
  5  4  1  0
  6  5  1  0
  8  7  1  0
  8  4  1  0
 10  9  1  0
 11 10  1  0
 12 11  1  0
 13 12  1  0
 14 13  1  0
 14  9  1  0
 15  2  1  0
 15  1  1  0
 16  7  1  0
 16  6  1  0
  9 17  1  6
 17  1  1  0
 18  1  1  0
M  END
$$$$

     RDKit          3D

 13 14  0  0  0  0  0  0  0  0999 V2000
    9.5580    1.8200   22.2670 C   0  0  0  0  0  0  0  0  0  0  0  0
    9.1730    1.1610   23.6340 C   0  0  1  0  0  0  0  0  0  0  0  0
    7.8480    1.0680   23.7850 C   0  0  0  0  0  0  0  0  0  0  0  0
    7.4560   -0.4410   23.3710 C   0  0  0  0  0  0  0  0  0  0  0  0
    8.8250   -1.1350   23.0350 C   0  0  0  0  0  0  0  0  0  0  0  0
    9.7470   -0.4010   23.7150 C   0  0  1  0  0  0  0  0  0  0  0  0
   11.1740   -0.4880   23.1190 C   0  0  0  0  0  0  0  0  0  0  0  0
   12.1800    0.4340   23.4970 C   0  0  0  0  0  0  0  0  0  0  0  0
   13.4350    0.2230   22.8750 C   0  0  0  0  0  0  0  0  0  0  0  0
   11.5520   -1.4830   22.1960 C   0  0  0  0  0  0  0  0  0  0  0  0
   10.3490    3.0590   22.2720 N   0  0  0  0  0  0  0  0  0  0  0  0
    9.2250    1.3200   21.2130 O   0  0  0  0  0  0  0  0  0  0  0  0
   13.2410   -1.1710   21.8340 S   0  0  0  0  0  0  0  0  0  0  0  0
  2  1  1  6
  3  2  1  0
  4  3  1  0
  5  4  1  0
  6  5  1  0
  6  2  1  0
  6  7  1  6
  8  7  1  0
  9  8  1  0
 10  7  1  0
 11  1  1  0
 12  1  1  0
 13 10  1  0
 13  9  1  0
M  END
$$$$

     RDKit          3D

 11 11  0  0  0  0  0  0  0  0999 V2000
    9.5270    5.1070   23.0000 N   0  0  0  0  0  0  0  0  0  0  0  0
   12.6100    1.0520   23.1500 C   0  0  0  0  0  0  0  0  0  0  0  0
   10.3670    5.1640   25.3050 O   0  0  0  0  0  0  0  0  0  0  0  0
   11.3700    1.1210   23.7910 C   0  0  0  0  0  0  0  0  0  0  0  0
   10.8290    2.3950   24.0540 C   0  0  0  0  0  0  0  0  0  0  0  0
   11.5030    3.5810   23.6880 C   0  0  0  0  0  0  0  0  0  0  0  0
   12.7490    3.4480   23.0580 C   0  0  0  0  0  0  0  0  0  0  0  0
   13.3080    2.2000   22.7900 C   0  0  0  0  0  0  0  0  0  0  0  0
   11.7330    6.1150   23.5100 O   0  0  0  0  0  0  0  0  0  0  0  0
   10.8430    5.1060   23.9780 S   0  0  1  0  0  0  0  0  0  0  0  0
   13.4090   -0.7000   22.6920 Br  0  0  0  0  0  0  0  0  0  0  0  0
  4  2  1  0
  5  4  1  0
  6  5  1  0
  7  6  1  0
  8  7  1  0
  8  2  1  0
 10  3  1  0
 10  1  1  6
 10  6  1  0
 10  9  1  0
 11  2  1  0
M  END
$$$$

     RDKit          3D

 20 20  0  0  0  0  0  0  0  0999 V2000
    7.8160    4.8510   22.6070 C   0  0  0  0  0  0  0  0  0  0  0  0
    7.0410   -0.3190   20.1400 C   0  0  0  0  0  0  0  0  0  0  0  0
    9.1190    0.3280   22.3550 C   0  0  0  0  0  0  0  0  0  0  0  0
   10.0490   -1.8570   21.8960 C   0  0  0  0  0  0  0  0  0  0  0  0
   11.4300   -1.6550   22.3400 C   0  0  0  0  0  0  0  0  0  0  0  0
   12.5700   -1.7000   22.7420 C   0  0  0  0  0  0  0  0  0  0  0  0
    7.3670    3.4730   22.9690 C   0  0  0  0  0  0  0  0  0  0  0  0
    7.9300    1.0960   22.9160 C   0  0  2  0  0  0  0  0  0  0  0  0
    6.5970    0.4580   22.4930 C   0  0  0  0  0  0  0  0  0  0  0  0
    6.3590    0.5210   21.0050 C   0  0  0  0  0  0  0  0  0  0  0  0
    5.4780    1.4430   20.4570 C   0  0  0  0  0  0  0  0  0  0  0  0
    5.2780    1.5240   19.0890 C   0  0  0  0  0  0  0  0  0  0  0  0
    5.9710    0.6700   18.2480 C   0  0  0  0  0  0  0  0  0  0  0  0
    6.8570   -0.2490   18.7720 C   0  0  0  0  0  0  0  0  0  0  0  0
    8.0630    2.4670   22.4450 N   0  0  0  0  0  0  0  0  0  0  0  0
    9.1560   -0.9750   22.6170 N   0  0  0  0  0  0  0  0  0  0  0  0
    6.3900    3.2650   23.6800 O   0  0  0  0  0  0  0  0  0  0  0  0
    5.8190    0.7380   16.9050 O   0  0  0  0  0  0  0  0  0  0  0  0
    9.9670    0.8990   21.6760 O   0  0  0  0  0  0  0  0  0  0  0  0
   14.2640   -2.0190   23.6280 Br  0  0  0  0  0  0  0  0  0  0  0  0
  5  4  1  0
  6  5  1  0
  7  1  1  0
  8  3  1  0
  8  9  1  6
 10  2  1  0
 10  9  1  0
 11 10  1  0
 12 11  1  0
 13 12  1  0
 14 13  1  0
 14  2  1  0
 15  8  1  0
 15  7  1  0
 16  4  1  0
 16  3  1  0
 17  7  1  0
 18 13  1  0
 19  3  1  0
 20  6  1  0
M  END
$$$$

     RDKit          3D

  5  4  0  0  0  0  0  0  0  0999 V2000
   10.2630   -5.8010   25.0960 N   0  0  0  0  0  0  0  0  0  0  0  0
    8.8220   -3.5490   23.3680 C   0  0  0  0  0  0  0  0  0  0  0  0
    8.2100   -4.7890   24.0210 C   0  0  0  0  0  0  0  0  0  0  0  0
    9.1000   -5.2470   25.1770 C   0  0  0  0  0  0  0  0  0  0  0  0
    8.5860   -5.0380   26.4480 N   0  0  0  0  0  0  0  0  0  0  0  0
  3  2  1  0
  4  1  1  0
  4  3  1  0
  5  4  1  0
M  END
$$$$

     RDKit          3D

  7  7  0  0  0  0  0  0  0  0999 V2000
    3.8630    2.0700   19.5890 N   0  0  0  0  0  0  0  0  0  0  0  0
    4.8270    1.2310   19.1790 C   0  0  0  0  0  0  0  0  0  0  0  0
    5.2660    0.1470   19.9800 C   0  0  0  0  0  0  0  0  0  0  0  0
    6.7040   -0.5050   18.3020 C   0  0  0  0  0  0  0  0  0  0  0  0
    5.4380    1.3570   17.9020 C   0  0  0  0  0  0  0  0  0  0  0  0
    6.1890   -0.7300   19.5570 N   0  0  0  0  0  0  0  0  0  0  0  0
    6.3730    0.5000   17.4690 N   0  0  0  0  0  0  0  0  0  0  0  0
  2  1  1  0
  3  2  1  0
  5  2  1  0
  6  3  1  0
  6  4  1  0
  7  5  1  0
  7  4  1  0
M  END
$$$$

     RDKit          3D

 15 16  0  0  0  0  0  0  0  0999 V2000
   10.0420    1.4410   21.3830 N   0  0  0  0  0  0  0  0  0  0  0  0
    9.8990    0.4750   21.9910 C   0  0  0  0  0  0  0  0  0  0  0  0
    7.4230   -5.8980   25.4390 O   0  0  0  0  0  0  0  0  0  0  0  0
    9.7280   -0.6770   22.7790 C   0  0  2  0  0  0  0  0  0  0  0  0
    8.8320   -4.1830   26.5030 C   0  0  0  0  0  0  0  0  0  0  0  0
    9.0230   -0.5760   23.9670 C   0  0  0  0  0  0  0  0  0  0  0  0
    8.9480   -1.6860   24.8020 C   0  0  0  0  0  0  0  0  0  0  0  0
    9.5840   -2.8930   24.4440 C   0  0  1  0  0  0  0  0  0  0  0  0
   10.2570   -2.8820   23.1770 C   0  0  0  0  0  0  0  0  0  0  0  0
   10.0180   -5.3960   24.6780 C   0  0  0  0  0  0  0  0  0  0  0  0
    9.0290   -5.8990   23.6200 C   0  0  0  0  0  0  0  0  0  0  0  0
    7.5640   -5.6790   24.0400 C   0  0  0  0  0  0  0  0  0  0  0  0
    7.4140   -4.7710   26.2810 C   0  0  0  0  0  0  0  0  0  0  0  0
   10.3390   -1.8220   22.3550 N   0  0  0  0  0  0  0  0  0  0  0  0
    9.6600   -4.0770   25.2700 N   0  0  0  0  0  0  0  0  0  0  0  0
  2  1  1  0
  4  2  1  1
  6  4  1  0
  7  6  1  0
  8  7  1  0
  9  8  1  0
 11 10  1  0
 12 11  1  0
 12  3  1  0
 13  3  1  0
 13  5  1  0
 14  9  1  0
 14  4  1  0
 15 10  1  0
  8 15  1  1
 15  5  1  0
M  END
$$$$

     RDKit          3D

 19 21  0  0  0  0  0  0  0  0999 V2000
   13.8710   -1.3430   23.5990 C   0  0  0  0  0  0  0  0  0  0  0  0
    5.8990    0.7960   18.7620 C   0  0  0  0  0  0  0  0  0  0  0  0
    4.1060    1.8690   19.6250 C   0  0  0  0  0  0  0  0  0  0  0  0
    4.4730    1.5490   20.9290 C   0  0  0  0  0  0  0  0  0  0  0  0
    5.6210    0.8170   21.1480 C   0  0  0  0  0  0  0  0  0  0  0  0
    6.3680    0.4170   20.0350 C   0  0  0  0  0  0  0  0  0  0  0  0
   11.6060   -1.9010   22.9900 C   0  0  0  0  0  0  0  0  0  0  0  0
   10.1520   -1.5150   23.1300 C   0  0  0  0  0  0  0  0  0  0  0  0
   10.7980    0.8040   23.3610 C   0  0  0  0  0  0  0  0  0  0  0  0
   12.2480    0.4020   23.2390 C   0  0  0  0  0  0  0  0  0  0  0  0
    9.2040    0.1860   21.5790 C   0  0  0  0  0  0  0  0  0  0  0  0
    8.4460   -0.9250   20.8680 C   0  0  0  0  0  0  0  0  0  0  0  0
    7.5700   -0.3310   19.8170 C   0  0  0  0  0  0  0  0  0  0  0  0
    7.7770   -0.3570   18.4700 C   0  0  0  0  0  0  0  0  0  0  0  0
   12.4620   -0.9650   23.7210 N   0  0  0  0  0  0  0  0  0  0  0  0
    9.9680   -0.1520   22.6340 N   0  0  0  0  0  0  0  0  0  0  0  0
    6.7740    0.3220   17.8310 N   0  0  0  0  0  0  0  0  0  0  0  0
    4.7940    1.5180   18.5300 N   0  0  0  0  0  0  0  0  0  0  0  0
    9.1290    1.3450   21.1760 O   0  0  0  0  0  0  0  0  0  0  0  0
  4  3  1  0
  5  4  1  0
  6  5  1  0
  6  2  1  0
  8  7  1  0
 10  9  1  0
 12 11  1  0
 13 12  1  0
 13  6  1  0
 14 13  1  0
 15 10  1  0
 15  7  1  0
 15  1  1  0
 16 11  1  0
 16  9  1  0
 16  8  1  0
 17 14  1  0
 17  2  1  0
 18  3  1  0
 18  2  1  0
 19 11  1  0
M  END
$$$$

     RDKit          3D

 18 19  0  0  0  0  0  0  0  0999 V2000
    8.5910    0.6370   24.9500 N   0  0  0  0  0  0  0  0  0  0  0  0
    7.8470    1.3990   24.0470 C   0  0  0  0  0  0  0  0  0  0  0  0
    8.3200    2.3970   23.4800 O   0  0  0  0  0  0  0  0  0  0  0  0
    9.9750    0.9680   25.2760 C   0  0  0  0  0  0  0  0  0  0  0  0
    4.1890    0.2930   24.7610 C   0  0  0  0  0  0  0  0  0  0  0  0
    4.3610    0.9880   22.4890 C   0  0  0  0  0  0  0  0  0  0  0  0
    5.7570    1.5950   22.7340 C   0  0  0  0  0  0  0  0  0  0  0  0
   10.8950    0.3440   24.2640 C   0  0  0  0  0  0  0  0  0  0  0  0
   12.0590    1.0040   23.8800 C   0  0  0  0  0  0  0  0  0  0  0  0
   12.9070    0.4250   22.9390 C   0  0  0  0  0  0  0  0  0  0  0  0
   12.5700   -0.8110   22.3760 C   0  0  0  0  0  0  0  0  0  0  0  0
   13.4080   -1.3840   21.3940 C   0  0  0  0  0  0  0  0  0  0  0  0
   11.4100   -1.4790   22.7610 C   0  0  0  0  0  0  0  0  0  0  0  0
   10.5740   -0.9000   23.7070 C   0  0  0  0  0  0  0  0  0  0  0  0
    5.6220    0.7890   25.0630 C   0  0  0  0  0  0  0  0  0  0  0  0
   14.1100   -1.8210   20.5920 N   0  0  0  0  0  0  0  0  0  0  0  0
    6.4770    0.9020   23.8360 N   0  0  0  0  0  0  0  0  0  0  0  0
    3.6160    1.0220   23.6900 O   0  0  0  0  0  0  0  0  0  0  0  0
  2  1  1  0
  3  2  1  0
  4  1  1  0
  7  6  1  0
  8  4  1  0
  9  8  1  0
 10  9  1  0
 11 10  1  0
 12 11  1  0
 13 11  1  0
 14  8  1  0
 14 13  1  0
 15  5  1  0
 16 12  1  0
 17 15  1  0
 17  7  1  0
 17  2  1  0
 18  6  1  0
 18  5  1  0
M  END
$$$$

     RDKit          3D

 16 17  0  0  0  0  0  0  0  0999 V2000
    8.5370    2.2820   22.7830 O   0  0  0  0  0  0  0  0  0  0  0  0
    9.8420    1.7080   22.6070 S   0  0  1  0  0  0  0  0  0  0  0  0
   10.3800    1.6460   21.2780 O   0  0  0  0  0  0  0  0  0  0  0  0
   10.9740    2.5740   23.6280 C   0  0  0  0  0  0  0  0  0  0  0  0
    9.8190    0.0680   23.2690 C   0  0  1  0  0  0  0  0  0  0  0  0
    9.5760   -0.1150   24.6190 C   0  0  0  0  0  0  0  0  0  0  0  0
    9.4170   -1.3950   25.1140 C   0  0  0  0  0  0  0  0  0  0  0  0
    9.5120   -2.5020   24.2770 C   0  0  0  0  0  0  0  0  0  0  0  0
    9.8000   -2.2970   22.9260 C   0  0  0  0  0  0  0  0  0  0  0  0
    9.9550   -1.0190   22.4210 C   0  0  0  0  0  0  0  0  0  0  0  0
    9.2780   -3.7900   24.7740 N   0  0  0  0  0  0  0  0  0  0  0  0
    8.9640   -3.9890   26.1960 C   0  0  0  0  0  0  0  0  0  0  0  0
    8.2550   -5.3130   26.4070 C   0  0  0  0  0  0  0  0  0  0  0  0
    9.0360   -6.4180   25.8100 N   0  0  0  0  0  0  0  0  0  0  0  0
    9.2990   -6.1820   24.3790 C   0  0  0  0  0  0  0  0  0  0  0  0
   10.0660   -4.8930   24.2180 C   0  0  0  0  0  0  0  0  0  0  0  0
  2  1  1  0
  3  2  1  0
  2  4  1  1
  5  2  1  0
  5  6  1  6
  7  6  1  0
  8  7  1  0
  9  8  1  0
 10  9  1  0
 10  5  1  0
 11  8  1  0
 12 11  1  0
 13 12  1  0
 14 13  1  0
 15 14  1  0
 16 15  1  0
 16 11  1  0
M  END
$$$$
